89
Lattice="33.3388 0.0 0.0 0.0 13.7189 0.0 0.0 0.0 18.4118" Properties=species:S:1:pos:R:3:forces:R:3:magmoms:R:1 energy=-542.1215457610472 dipole="1.1441095417957277 0.5461144031718977 0.5959489855073734" magmom=0.0 free_energy=-542.1215457610472 pbc="F F F"
H       12.00592883       5.40633665       8.13396436       0.01245384      -0.00144308       0.00204966       0.00000000
H       22.97091520       7.02671304      13.22342545       0.02396802      -0.01357067       0.00369132       0.00000000
H       16.41926176       7.15962844      12.40407637      -0.01211303       0.01326321       0.00546229       0.00000000
H       16.80472558       6.50371173       8.16310315       0.00368475      -0.02065548      -0.00579926       0.00000000
H       18.52472223       5.12430106       9.10044870       0.01459203       0.01713108      -0.03280670       0.00000000
H       18.37764281       8.39887658      11.89752558       0.00947938       0.00321123       0.01488086       0.00000000
H       13.98075255       7.05127497      12.20890452      -0.00029100       0.01298520      -0.00039956       0.00000000
H       14.34981807       6.41688028       7.94965709      -0.00320116       0.00691377      -0.01314974       0.00000000
H       20.94826866       4.91288160       9.47305247       0.00563768      -0.01455854      -0.03817733       0.00000000
H       20.81077705       8.19422837      12.26637215       0.00643008       0.02009176       0.02096960       0.00000000
H        6.18310645       5.02886520       8.18431731      -0.01106881      -0.02083617       0.01126808       0.00000000
H       11.90320500       7.65003221      11.70502649       0.00459215       0.01436606       0.00955879       0.00000000
H       23.24665330       5.74364690       9.20318453      -0.00097958      -0.00214724       0.00447887       0.00000000
H        6.65668219       4.46230999       3.96425564      -0.01297084      -0.00711401       0.01993903       0.00000000
H        6.74399388       6.26117789       4.09465608      -0.00053543      -0.00041246       0.01140684       0.00000000
H        8.19364770       5.27177865       4.44756063       0.00243889       0.01106458       0.00773439       0.00000000
H        7.08744440       9.40562972       8.46917805       0.00745195      -0.00398613       0.00474345       0.00000000
H        5.72728883       8.64606183       7.62507295      -0.01534074      -0.00852960      -0.00286423       0.00000000
H        5.41176626       9.76480232       8.97810568       0.00431977      -0.00206374      -0.00125371       0.00000000
H        4.25004489       6.90013354       8.92252172      -0.00713663       0.00571546      -0.01283006       0.00000000
H        4.69408316       6.43154091      10.57824677       0.00517915      -0.00269341       0.02030546       0.00000000
H        4.05196150       8.06549716      10.25287090       0.00612748       0.01138043       0.00974741       0.00000000
H       26.93436761       6.57605592       6.22097627       0.02626133       0.00664522       0.01153518       0.00000000
H       25.74102410       7.87114769       6.35193089      -0.01135653      -0.00964822       0.02298564       0.00000000
H        8.52312167       4.04197477      12.06317515       0.00095118       0.00538872      -0.00560143       0.00000000
H        7.25405823       4.96696337      12.88639720       0.01093544      -0.00643433      -0.00141865       0.00000000
H       10.27854403       5.22891038      13.15476833      -0.00235941       0.00423543      -0.01918334       0.00000000
H        9.04488960       5.60797997      14.37238685      -0.00844310      -0.00158900       0.01058796       0.00000000
H       28.09784420       8.67338705       6.93226144       0.00437526      -0.01277927      -0.02154951       0.00000000
H       26.93459718       8.90192148       8.23695650       0.01044534       0.00488356       0.01573940       0.00000000
H        6.52034416       8.16689278      10.56092615      -0.00600991       0.00157159      -0.00717504       0.00000000
H        8.49628743       7.73618414      13.26978361       0.00282405      -0.00689505      -0.00466170       0.00000000
H       10.26082168       7.69101355      13.11978913       0.00785823       0.00017977      -0.00668480       0.00000000
H       29.41182920       7.23969393       8.26249344       0.03023706       0.00201478      -0.01934081       0.00000000
H       28.42489342       7.78562655       9.62725148      -0.01032520       0.01167984       0.01700821       0.00000000
H       26.83150870       4.17263453      11.74740869       0.00419174       0.00351939      -0.01221415       0.00000000
H       27.00478740       5.94732965      11.72406029       0.00277918       0.00841320       0.03271764       0.00000000
H        8.03811032       7.13249950       8.81019943      -0.00720350       0.00527678      -0.01292024       0.00000000
H        8.68761996       7.98003069      10.90992905      -0.00024936      -0.01345887       0.00221845       0.00000000
H       28.03030670       5.34142558       7.84047090      -0.03387683       0.00726800      -0.00703547       0.00000000
H       25.52388562       4.16886798       9.71745666       0.00939308      -0.00494201      -0.01453912       0.00000000
O        7.76344484       7.09708618       6.34174024      -0.01674376       0.00309687       0.00361303       0.00000000
O       24.40118512       6.22241802       7.75668109      -0.00209260      -0.02215531       0.00974536       0.00000000
O        6.67000969       4.56651051      10.23272023       0.00867129       0.00103695      -0.01264099       0.00000000
N       10.38799160       5.99952174       9.40995804      -0.00720086       0.00705076      -0.00790732       0.00000000
N       24.58949328       6.24792967      12.03968267      -0.00367826      -0.02881320       0.01476498       0.00000000
O        6.65953351       5.14649668       5.86979986      -0.00021348      -0.00870481      -0.00429147       0.00000000
S       28.46396071       4.83677497      10.10887196       0.02727957       0.03401071      -0.00845721       0.00000000
C        7.06956976       6.15071517       6.70425123      -0.01806561       0.00430388       0.01101299       0.00000000
C       25.62127581       6.42821251       7.90797304      -0.03272852       0.01230170       0.00456944       0.00000000
C        7.30010540       5.64190451      10.21843012       0.00433523      -0.00094761      -0.01361267       0.00000000
C       11.70592789       5.94848234       9.02923344      -0.00101578      -0.03514451      -0.01382766       0.00000000
C       23.28723664       6.62761780      12.26031119      -0.01619231      -0.00760305       0.02024381       0.00000000
C       15.96830343       7.02587008      11.41615033       0.01058035       0.00540445       0.01035488       0.00000000
C       16.18364188       6.61498440       9.05705409       0.00465538       0.00041250      -0.01098805       0.00000000
C       19.02833417       5.82707466       9.77120851       0.00464730      -0.01278069      -0.00430153       0.00000000
C       18.93936474       7.62204394      11.36951331       0.00491762       0.00966377       0.00797986       0.00000000
C       14.58517839       6.96868813      11.29915845      -0.01442460       0.00359330       0.01844755       0.00000000
C       14.80076520       6.56915349       8.93429573      -0.00840952       0.01653924       0.01326577       0.00000000
C       20.39575302       5.70591691       9.98444348       0.00139992      -0.02306499      -0.01305376       0.00000000
C       20.30854634       7.50807620      11.57901304       0.01092413       0.01406287       0.00182232       0.00000000
C       16.80191872       6.83143618      10.30227199       0.01003267      -0.00616130       0.03250796       0.00000000
C       18.26548847       6.78092807      10.46579785      -0.00472528      -0.02323543       0.00463953       0.00000000
C       13.96757692       6.72793926      10.05804386      -0.01152364       0.01226336      -0.02085133       0.00000000
C       21.06685806       6.53795506      10.89838131       0.02370019       0.00242298      -0.01557806       0.00000000
C       10.37143609       6.69270543      10.54782734       0.00713652       0.00358270       0.00219541       0.00000000
C       24.60194949       5.77761543      10.78729544       0.02001859      -0.03107753       0.02290049       0.00000000
C       12.52396645       6.60020077       9.94043083      -0.00220776       0.01651810       0.03217014       0.00000000
C       22.49157433       6.37400082      11.14976500      -0.00139784      -0.00311871      -0.01159864       0.00000000
N        6.55193235       5.96794801       7.95414862      -0.02054727       0.01337826      -0.01281712       0.00000000
N        8.12775616       5.96965677      11.25441636      -0.02391405       0.00896247      -0.02952598       0.00000000
N       26.35161010       5.96812843       8.97164862      -0.00403212       0.00562123       0.02320049       0.00000000
N       11.64108769       7.06893403      10.90045387      -0.03787576      -0.00004941      -0.02592481       0.00000000
N       23.35305046       5.79735607      10.23672081       0.00487692      -0.00270000      -0.03632161       0.00000000
C        7.09469032       5.30548081       4.51569625      -0.00878008      -0.00316868       0.02265680       0.00000000
C        6.08555836       8.97051824       8.61522824       0.00359254       0.00228754      -0.00212229       0.00000000
C        4.70058053       7.26614949       9.85953644      -0.01165117       0.00223309       0.00488003       0.00000000
C       26.44385023       7.26106797       6.93896934      -0.01993633      -0.01220980       0.01227804       0.00000000
C        8.24100749       5.05280237      12.39990063       0.00301230       0.00781411      -0.00913725       0.00000000
C        9.29524462       5.70378796      13.30586792       0.00758688       0.00779777      -0.00883366       0.00000000
C       27.48247239       8.13307649       7.66858038      -0.01098464       0.00426535       0.00336489       0.00000000
C        6.10971437       7.79969821       9.59908665      -0.00395770       0.01334912       0.00673196       0.00000000
C        9.33509749       7.16435157      12.83878924       0.00288753       0.00516878      -0.00780516       0.00000000
C       28.37738415       7.31280447       8.63405134       0.00188299      -0.02082643       0.01514942       0.00000000
C       26.95475101       5.04847837      11.09506366      -0.02402473       0.02123924       0.00426712       0.00000000
C        7.07789259       6.67768221       9.10479244       0.00091765      -0.00961972       0.01690061       0.00000000
C        9.11742618       7.04907362      11.32102239       0.00481400      -0.00675459      -0.01658856       0.00000000
C       27.81123665       5.90014014       8.76935295      -0.01692499       0.00112802       0.01194726       0.00000000
C       25.80068404       5.17110975      10.09972851      -0.00503762       0.02868928      -0.01155418       0.00000000
